0,   100.00, 33, 0, 1, 60.00     / PSS(R)E-33.7    TUE, AUG 01 2017   1:39
 08/25/93 UW ARCHIVE           100.0  1961 W IEEE 118 BUS TE
 08/25/93 UW ARCHIVE           100.0  1961 W IEEE 118 BUS TE
     1,'RIVERSDE    ', 138.0000,2,   1,   1,   1,0.96932,  36.9771,1.10000,0.90000,1.10000,0.90000
     2,'POKAGON     ', 138.0000,1,   1,   1,   1,0.97626,  37.2710,1.10000,0.90000,1.10000,0.90000
     3,'HICKRYCK    ', 138.0000,1,   1,   1,   1,0.97920,  37.6609,1.10000,0.90000,1.10000,0.90000
     4,'NWCARLSL    ', 138.0000,2,   1,   1,   1,0.99800,  39.0571,1.10000,0.90000,1.10000,0.90000
     5,'OLIVE       ', 138.0000,1,   1,   1,   1,1.00175,  39.2185,1.10000,0.90000,1.10000,0.90000
     6,'KANKAKEE    ', 138.0000,2,   1,   1,   1,0.99000,  37.9756,1.10000,0.90000,1.10000,0.90000
     7,'JACKSNRD    ', 138.0000,1,   1,   1,   1,0.98723,  37.7050,1.10000,0.90000,1.10000,0.90000
     8,'OLIVE       ', 138.0000,2,   1,   1,   1,1.01500,  41.5071,1.10000,0.90000,1.10000,0.90000
     9,'BEQUINE     ', 138.0000,1,   1,   1,   1,1.04753,  46.4842,1.10000,0.90000,1.10000,0.90000
    10,'BREED       ', 138.0000,2,   1,   1,   1,1.05000,  51.7407,1.10000,0.90000,1.10000,0.90000
    11,'SOUTHBND    ', 138.0000,1,   1,   1,   1,0.98549,  37.7746,1.10000,0.90000,1.10000,0.90000
    12,'TWINBRCH    ', 138.0000,2,   1,   1,   1,0.98283,  37.2841,1.10000,0.90000,1.10000,0.90000
    13,'CONCORD     ', 138.0000,1,   1,   1,   1,0.97808,  36.9296,1.10000,0.90000,1.10000,0.90000
    14,'GOSHENJT    ', 138.0000,1,   1,   1,   1,0.98234,  36.4639,1.10000,0.90000,1.10000,0.90000
    15,'FTWAYNE     ', 138.0000,2,   1,   1,   1,0.97577,  34.0367,1.10000,0.90000,1.10000,0.90000
    16,'N. E.       ', 138.0000,1,   1,   1,   1,0.98407,  36.4703,1.10000,0.90000,1.10000,0.90000
    17,'SORENSON    ', 138.0000,1,   1,   1,   1,0.99636,  35.0410,1.10000,0.90000,1.10000,0.90000
    18,'MCKINLEY    ', 138.0000,2,   1,   1,   1,0.97214,  33.9022,1.10000,0.90000,1.10000,0.90000
    19,'LINCOLN     ', 138.0000,2,   1,   1,   1,0.96603,  33.8873,1.10000,0.90000,1.10000,0.90000
    20,'ADAMS       ', 138.0000,1,   1,   1,   1,0.97315,  34.3922,1.10000,0.90000,1.10000,0.90000
    21,'JAY         ', 138.0000,1,   1,   1,   1,0.97790,  34.6936,1.10000,0.90000,1.10000,0.90000
    22,'RANDOLPH    ', 138.0000,1,   1,   1,   1,0.98703,  35.0176,1.10000,0.90000,1.10000,0.90000
    23,'COLLCRNR    ', 138.0000,1,   1,   1,   1,1.00303,  35.5830,1.10000,0.90000,1.10000,0.90000
    24,'TRENTON     ', 138.0000,2,   1,   1,   1,0.99200,  34.6202,1.10000,0.90000,1.10000,0.90000
    25,'TANNRSCK    ', 138.0000,2,   1,   1,   1,1.03691,  38.3050,1.10000,0.90000,1.10000,0.90000
    26,'TANNRSCK    ', 138.0000,2,   1,   1,   1,1.01500,  40.5516,1.10000,0.90000,1.10000,0.90000
    27,'MADISON     ', 138.0000,2,   1,   1,   1,0.96984,  34.8068,1.10000,0.90000,1.10000,0.90000
    28,'MULLIN      ', 138.0000,1,   1,   1,   1,0.96622,  34.6744,1.10000,0.90000,1.10000,0.90000
    29,'GRANT       ', 138.0000,1,   1,   1,   1,0.96567,  34.6430,1.10000,0.90000,1.10000,0.90000
    30,'SORENSON    ', 138.0000,1,   1,   1,   1,0.99285,  37.2206,1.10000,0.90000,1.10000,0.90000
    31,'DEERCRK     ', 138.0000,2,   1,   1,   1,0.96700,  34.8149,1.10000,0.90000,1.10000,0.90000
    32,'DELAWARE    ', 138.0000,2,   1,   1,   1,0.97364,  34.4393,1.10000,0.90000,1.10000,0.90000
    33,'HAVILAND    ', 138.0000,1,   1,   1,   1,0.98515,  33.1741,1.10000,0.90000,1.10000,0.90000
    34,'ROCKHILL    ', 138.0000,2,   1,   1,   1,0.99281,  31.8154,1.10000,0.90000,1.10000,0.90000
    35,'WESTLIMA    ', 138.0000,1,   1,   1,   1,0.99177,  31.7084,1.10000,0.90000,1.10000,0.90000
    36,'STERLING    ', 138.0000,2,   1,   1,   1,0.99071,  31.6541,1.10000,0.90000,1.10000,0.90000
    37,'EASTLIMA    ', 138.0000,1,   1,   1,   1,0.99961,  31.8685,1.10000,0.90000,1.10000,0.90000
    38,'EASTLIMA    ', 138.0000,1,   1,   1,   1,0.97288,  33.4491,1.10000,0.90000,1.10000,0.90000
    39,'NWLIBRTY    ', 138.0000,1,   1,   1,   1,0.97773,  30.4339,1.10000,0.90000,1.10000,0.90000
    40,'WEST END    ', 138.0000,2,   1,   1,   1,0.97000,  29.6817,1.10000,0.90000,1.10000,0.90000
    41,'S.TIFFIN    ', 138.0000,1,   1,   1,   1,0.97232,  29.3771,1.10000,0.90000,1.10000,0.90000
    42,'HOWARD      ', 138.0000,2,   1,   1,   1,0.98500,  28.2268,1.10000,0.90000,1.10000,0.90000
    43,'S.KENTON    ', 138.0000,1,   1,   1,   1,0.99966,  31.5195,1.10000,0.90000,1.10000,0.90000
    44,'WMVERNON    ', 138.0000,1,   1,   1,   1,1.00831,  30.7784,1.10000,0.90000,1.10000,0.90000
    45,'N.NEWARK    ', 138.0000,1,   1,   1,   1,1.00530,  30.9403,1.10000,0.90000,1.10000,0.90000
    46,'W.LANCST    ', 138.0000,2,   1,   1,   1,1.00500,  31.7351,1.10000,0.90000,1.10000,0.90000
    47,'CROOKSVL    ', 138.0000,1,   1,   1,   1,1.02321,  30.9385,1.10000,0.90000,1.10000,0.90000
    48,'ZANESVLL    ', 138.0000,1,   1,   1,   1,1.02316,  30.8951,1.10000,0.90000,1.10000,0.90000
    49,'PHILO       ', 138.0000,2,   1,   1,   1,1.02500,  30.6826,1.10000,0.90000,1.10000,0.90000
    50,'WCAMBRDG    ', 138.0000,1,   1,   1,   1,1.01033,  29.3144,1.10000,0.90000,1.10000,0.90000
    51,'NEWCMRST    ', 138.0000,1,   1,   1,   1,0.99028,  27.8582,1.10000,0.90000,1.10000,0.90000
    52,'SCOSHOCT    ', 138.0000,1,   1,   1,   1,0.98504,  27.5203,1.10000,0.90000,1.10000,0.90000
    53,'WOOSTER     ', 138.0000,1,   1,   1,   1,0.97321,  26.2445,1.10000,0.90000,1.10000,0.90000
    54,'TORREY      ', 138.0000,2,   1,   1,   1,0.97134,  25.2659,1.10000,0.90000,1.10000,0.90000
    55,'WAGENHLS    ', 138.0000,2,   1,   1,   1,0.96870,  25.0275,1.10000,0.90000,1.10000,0.90000
    56,'SUNNYSDE    ', 138.0000,2,   1,   1,   1,0.97095,  25.2413,1.10000,0.90000,1.10000,0.90000
    57,'WNWPHIL1    ', 138.0000,1,   1,   1,   1,0.98723,  26.9837,1.10000,0.90000,1.10000,0.90000
    58,'WNWPHIL2    ', 138.0000,1,   1,   1,   1,0.98199,  26.8000,1.10000,0.90000,1.10000,0.90000
    59,'TIDD        ', 138.0000,2,   1,   1,   1,0.98500,  26.8210,1.10000,0.90000,1.10000,0.90000
    60,'SWKAMMER    ', 138.0000,1,   1,   1,   1,0.99563,  30.0626,1.10000,0.90000,1.10000,0.90000
    61,'W.KAMMER    ', 138.0000,2,   1,   1,   1,0.99500,  30.2504,1.10000,0.90000,1.10000,0.90000
    62,'NATRIUM     ', 138.0000,2,   1,   1,   1,1.00086,  30.2044,1.10000,0.90000,1.10000,0.90000
    63,'TIDD        ', 138.0000,1,   1,   1,   1,0.96863,  28.7909,1.10000,0.90000,1.10000,0.90000
    64,'KAMMER      ', 138.0000,1,   1,   1,   1,0.98152,  29.8017,1.10000,0.90000,1.10000,0.90000
    65,'MUSKNGUM    ', 138.0000,2,   1,   1,   1,0.99353,  30.8091,1.10000,0.90000,1.10000,0.90000
    66,'MUSKNGUM    ', 138.0000,2,   1,   1,   1,1.05000,  33.7356,1.10000,0.90000,1.10000,0.90000
    67,'SUMMERFL    ', 138.0000,1,   1,   1,   1,1.02506,  32.0186,1.10000,0.90000,1.10000,0.90000
    68,'SPORN       ', 138.0000,1,   1,   1,   1,0.99166,  29.5363,1.10000,0.90000,1.10000,0.90000
    69,'SPORN       ', 138.0000,3,   1,   1,   1,1.03500,  30.0000,1.10000,0.90000,1.10000,0.90000
    70,'PORTSMTH    ', 138.0000,2,   1,   1,   1,0.99426,  29.2484,1.10000,0.90000,1.10000,0.90000
    71,'NPORTSMT    ', 138.0000,1,   1,   1,   1,0.99362,  29.9188,1.10000,0.90000,1.10000,0.90000
    72,'HILLSBRO    ', 138.0000,2,   1,   1,   1,0.99424,  31.6271,1.10000,0.90000,1.10000,0.90000
    73,'SARGENTS    ', 138.0000,2,   1,   1,   1,0.99100,  30.3547,1.10000,0.90000,1.10000,0.90000
    74,'BELLEFNT    ', 138.0000,2,   1,   1,   1,0.96920,  28.5260,1.10000,0.90000,1.10000,0.90000
    75,'STHPOINT    ', 138.0000,1,   1,   1,   1,0.98787,  28.6463,1.10000,0.90000,1.10000,0.90000
    76,'DARRAH      ', 138.0000,2,   1,   1,   1,0.97454,  26.9961,1.10000,0.90000,1.10000,0.90000
    77,'TURNER      ', 138.0000,2,   1,   1,   1,1.02100,  28.0276,1.10000,0.90000,1.10000,0.90000
    78,'CHEMICAL    ', 138.0000,1,   1,   1,   1,1.02178,  28.2229,1.10000,0.90000,1.10000,0.90000
    79,'CAPITLHL    ', 138.0000,1,   1,   1,   1,1.02653,  28.4139,1.10000,0.90000,1.10000,0.90000
    80,'CABINCRK    ', 138.0000,2,   1,   1,   1,1.04000,  28.7254,1.10000,0.90000,1.10000,0.90000
    81,'KANAWHA     ', 138.0000,1,   1,   1,   1,0.98891,  29.2353,1.10000,0.90000,1.10000,0.90000
    82,'LOGAN       ', 138.0000,1,   1,   1,   1,1.00986,  25.4470,1.10000,0.90000,1.10000,0.90000
    83,'SPRIGG      ', 138.0000,1,   1,   1,   1,1.00178,  24.4462,1.10000,0.90000,1.10000,0.90000
    84,'BETSYLNE    ', 138.0000,1,   1,   1,   1,0.98901,  22.9159,1.10000,0.90000,1.10000,0.90000
    85,'BEAVERCK    ', 138.0000,2,   1,   1,   1,0.98500,  22.0759,1.10000,0.90000,1.10000,0.90000
    86,'HAZARD      ', 138.0000,1,   1,   1,   1,0.98409,  22.3423,1.10000,0.90000,1.10000,0.90000
    87,'PINEVLLE    ', 138.0000,2,   1,   1,   1,0.98865,  22.3060,1.10000,0.90000,1.10000,0.90000
    88,'FREMONT     ', 138.0000,1,   1,   1,   1,0.98517,  20.1736,1.10000,0.90000,1.10000,0.90000
    89,'CLINCHRV    ', 138.0000,2,   1,   1,   1,0.99204,  19.6091,1.10000,0.90000,1.10000,0.90000
    90,'HOLSTON     ', 138.0000,2,   1,   1,   1,0.98500,  16.6729,1.10000,0.90000,1.10000,0.90000
    91,'HOLSTONT    ', 138.0000,2,   1,   1,   1,0.98844,  17.9708,1.10000,0.90000,1.10000,0.90000
    92,'SALTVLLE    ', 138.0000,2,   1,   1,   1,0.99451,  20.5275,1.10000,0.90000,1.10000,0.90000
    93,'TAZEWELL    ', 138.0000,1,   1,   1,   1,0.99926,  22.4891,1.10000,0.90000,1.10000,0.90000
    94,'SWITCHBK    ', 138.0000,1,   1,   1,   1,1.00609,  24.0475,1.10000,0.90000,1.10000,0.90000
    95,'CALDWELL    ', 138.0000,1,   1,   1,   1,1.00391,  24.8384,1.10000,0.90000,1.10000,0.90000
    96,'BAILEYSV    ', 138.0000,1,   1,   1,   1,1.01302,  25.6118,1.10000,0.90000,1.10000,0.90000
    97,'SUNDIAL     ', 138.0000,1,   1,   1,   1,1.02304,  26.8953,1.10000,0.90000,1.10000,0.90000
    98,'BRADLEY     ', 138.0000,1,   1,   1,   1,1.02915,  27.0037,1.10000,0.90000,1.10000,0.90000
    99,'HINTON      ', 138.0000,2,   1,   1,   1,1.02113,  24.5374,1.10000,0.90000,1.10000,0.90000
   100,'GLEN LYN    ', 138.0000,2,   1,   1,   1,1.01700,  24.2614,1.10000,0.90000,1.10000,0.90000
   101,'WYTHE       ', 138.0000,1,   1,   1,   1,1.00129,  22.7691,1.10000,0.90000,1.10000,0.90000
   102,'SMYTHE      ', 138.0000,1,   1,   1,   1,0.99665,  21.2908,1.10000,0.90000,1.10000,0.90000
   103,'CLAYTOR     ', 138.0000,2,   1,   1,   1,1.01000,  23.3858,1.10000,0.90000,1.10000,0.90000
   104,'HANCOCK     ', 138.0000,2,   1,   1,   1,0.98098,  22.1394,1.10000,0.90000,1.10000,0.90000
   105,'ROANOKE     ', 138.0000,2,   1,   1,   1,0.97533,  21.9728,1.10000,0.90000,1.10000,0.90000
   106,'CLOVERDL    ', 138.0000,1,   1,   1,   1,0.97493,  22.2332,1.10000,0.90000,1.10000,0.90000
   107,'REUSENS     ', 138.0000,2,   1,   1,   1,0.95200,  21.4423,1.10000,0.90000,1.10000,0.90000
   108,'BLAINE      ', 138.0000,1,   1,   1,   1,0.97313,  21.6797,1.10000,0.90000,1.10000,0.90000
   109,'FRANKLIN    ', 138.0000,1,   1,   1,   1,0.97207,  21.5574,1.10000,0.90000,1.10000,0.90000
   110,'FIELDALE    ', 138.0000,2,   1,   1,   1,0.96969,  21.1707,1.10000,0.90000,1.10000,0.90000
   111,'DANRIVER    ', 138.0000,2,   1,   1,   1,0.98000,  23.2800,1.10000,0.90000,1.10000,0.90000
   112,'DANVILLE    ', 138.0000,2,   1,   1,   1,0.95183,  19.3034,1.10000,0.90000,1.10000,0.90000
   113,'DEER CRK    ', 138.0000,2,   1,   1,   1,0.99385,  34.8848,1.10000,0.90000,1.10000,0.90000
   114,'WMEDFORD    ', 138.0000,1,   1,   1,   1,0.97046,  34.6685,1.10000,0.90000,1.10000,0.90000
   115,'MEDFORD     ', 138.0000,1,   1,   1,   1,0.97008,  34.7091,1.10000,0.90000,1.10000,0.90000
   116,'KYGERCRK    ', 138.0000,2,   1,   1,   1,0.99152,  29.2181,1.10000,0.90000,1.10000,0.90000
   117,'COREY       ', 138.0000,1,   1,   1,   1,0.97778,  37.5773,1.10000,0.90000,1.10000,0.90000
   118,'WHUNTNGD    ', 138.0000,1,   1,   1,   1,0.97931,  27.9859,1.10000,0.90000,1.10000,0.90000
0 / END OF BUS DATA, BEGIN LOAD DATA
     1,'1 ',1,   1,   1,    37.011,    19.594,     0.000,     0.000,     0.000,     0.000,   1,1,0
     2,'1 ',1,   1,   1,    14.514,     6.531,     0.000,     0.000,     0.000,     0.000,   1,1,0
     2,'PV',1,   1,   1,   -17.626,     0.000,     0.000,     0.000,     0.000,     0.000,   1,1,0
     3,'1 ',1,   1,   1,    28.303,     7.257,     0.000,     0.000,     0.000,     0.000,   1,1,0
     3,'PV',1,   1,   1,   -34.371,     0.000,     0.000,     0.000,     0.000,     0.000,   1,1,0
     4,'1 ',1,   1,   1,    28.303,     8.708,     0.000,     0.000,     0.000,     0.000,   1,1,0
     6,'1 ',1,   1,   1,    37.737,    15.966,     0.000,     0.000,     0.000,     0.000,   1,1,0
     7,'1 ',1,   1,   1,    13.788,     1.451,     0.000,     0.000,     0.000,     0.000,   1,1,0
     7,'PV',1,   1,   1,   -12.623,     0.000,     0.000,     0.000,     0.000,     0.000,   1,1,0
     8,'1 ',1,   1,   1,    20.320,     0.000,     0.000,     0.000,     0.000,     0.000,   1,1,0
    11,'1 ',1,   1,   1,    50.799,    16.691,     0.000,     0.000,     0.000,     0.000,   1,1,0
    11,'PV',1,   1,   1,   -39.933,     0.000,     0.000,     0.000,     0.000,     0.000,   1,1,0
    12,'1 ',1,   1,   1,    34.108,     7.257,     0.000,     0.000,     0.000,     0.000,   1,1,0
    13,'1 ',1,   1,   1,    24.673,    11.611,     0.000,     0.000,     0.000,     0.000,   1,1,0
    13,'PV',1,   1,   1,   -22.589,     0.000,     0.000,     0.000,     0.000,     0.000,   1,1,0
    14,'1 ',1,   1,   1,    10.160,     0.726,     0.000,     0.000,     0.000,     0.000,   1,1,0
    14,'PV',1,   1,   1,   -12.209,     0.000,     0.000,     0.000,     0.000,     0.000,   1,1,0
    15,'1 ',1,   1,   1,    65.313,    21.771,     0.000,     0.000,     0.000,     0.000,   1,1,0
    16,'1 ',1,   1,   1,    18.143,     7.257,     0.000,     0.000,     0.000,     0.000,   1,1,0
    16,'PV',1,   1,   1,   -14.262,     0.000,     0.000,     0.000,     0.000,     0.000,   1,1,0
    17,'1 ',1,   1,   1,     7.983,     2.177,     0.000,     0.000,     0.000,     0.000,   1,1,0
    17,'PV',1,   1,   1,    -9.694,     0.000,     0.000,     0.000,     0.000,     0.000,   1,1,0
    18,'1 ',1,   1,   1,    43.542,    24.673,     0.000,     0.000,     0.000,     0.000,   1,1,0
    19,'1 ',1,   1,   1,    32.656,    18.143,     0.000,     0.000,     0.000,     0.000,   1,1,0
    20,'1 ',1,   1,   1,    13.062,     2.177,     0.000,     0.000,     0.000,     0.000,   1,1,0
    20,'PV',1,   1,   1,   -14.301,     0.000,     0.000,     0.000,     0.000,     0.000,   1,1,0
    21,'1 ',1,   1,   1,    10.160,     5.806,     0.000,     0.000,     0.000,     0.000,   1,1,0
    21,'PV',1,   1,   1,    -9.655,     0.000,     0.000,     0.000,     0.000,     0.000,   1,1,0
    22,'1 ',1,   1,   1,     7.257,     3.629,     0.000,     0.000,     0.000,     0.000,   1,1,0
    22,'PV',1,   1,   1,    -6.644,     0.000,     0.000,     0.000,     0.000,     0.000,   1,1,0
    23,'1 ',1,   1,   1,     5.080,     2.177,     0.000,     0.000,     0.000,     0.000,   1,1,0
    23,'PV',1,   1,   1,    -5.561,     0.000,     0.000,     0.000,     0.000,     0.000,   1,1,0
    24,'1 ',1,   1,   1,     9.434,     0.000,     0.000,     0.000,     0.000,     0.000,   1,1,0
    27,'1 ',1,   1,   1,    51.525,     9.434,     0.000,     0.000,     0.000,     0.000,   1,1,0
    28,'1 ',1,   1,   1,    12.337,     5.080,     0.000,     0.000,     0.000,     0.000,   1,1,0
    28,'PV',1,   1,   1,    -9.698,     0.000,     0.000,     0.000,     0.000,     0.000,   1,1,0
    29,'1 ',1,   1,   1,    17.417,     2.903,     0.000,     0.000,     0.000,     0.000,   1,1,0
    29,'PV',1,   1,   1,    -7.978,     0.000,     0.000,     0.000,     0.000,     0.000,   1,1,0
    31,'1 ',1,   1,   1,    31.205,    19.594,     0.000,     0.000,     0.000,     0.000,   1,1,0
    32,'1 ',1,   1,   1,    42.816,    16.691,     0.000,     0.000,     0.000,     0.000,   1,1,0
    33,'1 ',1,   1,   1,    16.691,     6.531,     0.000,     0.000,     0.000,     0.000,   1,1,0
    33,'PV',1,   1,   1,   -20.057,     0.000,     0.000,     0.000,     0.000,     0.000,   1,1,0
    34,'1 ',1,   1,   1,    42.816,    18.868,     0.000,     0.000,     0.000,     0.000,   1,1,0
    35,'1 ',1,   1,   1,    23.948,     6.531,     0.000,     0.000,     0.000,     0.000,   1,1,0
    35,'PV',1,   1,   1,   -26.218,     0.000,     0.000,     0.000,     0.000,     0.000,   1,1,0
    36,'1 ',1,   1,   1,    22.497,    12.337,     0.000,     0.000,     0.000,     0.000,   1,1,0
    39,'1 ',1,   1,   1,    19.716,     8.033,     0.000,     0.000,     0.000,     0.000,   1,1,0
    39,'PV',1,   1,   1,   -15.403,     0.000,     0.000,     0.000,     0.000,     0.000,   1,1,0
    40,'1 ',1,   1,   1,    48.195,    16.795,     0.000,     0.000,     0.000,     0.000,   1,1,0
    41,'1 ',1,   1,   1,    27.019,     7.302,     0.000,     0.000,     0.000,     0.000,   1,1,0
    41,'PV',1,   1,   1,   -29.373,     0.000,     0.000,     0.000,     0.000,     0.000,   1,1,0
    42,'1 ',1,   1,   1,    70.103,    16.795,     0.000,     0.000,     0.000,     0.000,   1,1,0
    43,'1 ',1,   1,   1,    13.144,     5.112,     0.000,     0.000,     0.000,     0.000,   1,1,0
    43,'PV',1,   1,   1,   -15.410,     0.000,     0.000,     0.000,     0.000,     0.000,   1,1,0
    44,'1 ',1,   1,   1,    11.684,     5.842,     0.000,     0.000,     0.000,     0.000,   1,1,0
    44,'PV',1,   1,   1,    -5.319,     0.000,     0.000,     0.000,     0.000,     0.000,   1,1,0
    45,'1 ',1,   1,   1,    38.702,    16.065,     0.000,     0.000,     0.000,     0.000,   1,1,0
    45,'PV',1,   1,   1,   -30.235,     0.000,     0.000,     0.000,     0.000,     0.000,   1,1,0
    46,'1 ',1,   1,   1,    20.446,     7.302,     0.000,     0.000,     0.000,     0.000,   1,1,0
    47,'1 ',1,   1,   1,    24.828,     0.000,     0.000,     0.000,     0.000,     0.000,   1,1,0
    47,'PV',1,   1,   1,   -29.109,     0.000,     0.000,     0.000,     0.000,     0.000,   1,1,0
    48,'1 ',1,   1,   1,    14.605,     8.033,     0.000,     0.000,     0.000,     0.000,   1,1,0
    48,'PV',1,   1,   1,   -15.877,     0.000,     0.000,     0.000,     0.000,     0.000,   1,1,0
    49,'1 ',1,   1,   1,    63.531,    21.907,     0.000,     0.000,     0.000,     0.000,   1,1,0
    50,'1 ',1,   1,   1,    12.414,     2.921,     0.000,     0.000,     0.000,     0.000,   1,1,0
    50,'PV',1,   1,   1,    -9.698,     0.000,     0.000,     0.000,     0.000,     0.000,   1,1,0
    51,'1 ',1,   1,   1,    12.414,     5.842,     0.000,     0.000,     0.000,     0.000,   1,1,0
    51,'PV',1,   1,   1,    -9.698,     0.000,     0.000,     0.000,     0.000,     0.000,   1,1,0
    52,'1 ',1,   1,   1,    13.144,     3.651,     0.000,     0.000,     0.000,     0.000,   1,1,0
    52,'PV',1,   1,   1,   -15.697,     0.000,     0.000,     0.000,     0.000,     0.000,   1,1,0
    53,'1 ',1,   1,   1,    16.795,     8.033,     0.000,     0.000,     0.000,     0.000,   1,1,0
    53,'PV',1,   1,   1,   -15.862,     0.000,     0.000,     0.000,     0.000,     0.000,   1,1,0
    54,'1 ',1,   1,   1,    82.517,    23.367,     0.000,     0.000,     0.000,     0.000,   1,1,0
    55,'1 ',1,   1,   1,    46.004,    16.065,     0.000,     0.000,     0.000,     0.000,   1,1,0
    56,'1 ',1,   1,   1,    61.340,    13.144,     0.000,     0.000,     0.000,     0.000,   1,1,0
    57,'1 ',1,   1,   1,     8.763,     2.191,     0.000,     0.000,     0.000,     0.000,   1,1,0
    57,'PV',1,   1,   1,    -8.886,     0.000,     0.000,     0.000,     0.000,     0.000,   1,1,0
    58,'1 ',1,   1,   1,     8.763,     2.191,     0.000,     0.000,     0.000,     0.000,   1,1,0
    58,'PV',1,   1,   1,   -10.576,     0.000,     0.000,     0.000,     0.000,     0.000,   1,1,0
    59,'1 ',1,   1,   1,   202.272,    82.517,     0.000,     0.000,     0.000,     0.000,   1,1,0
    60,'1 ',1,   1,   1,    56.959,     2.191,     0.000,     0.000,     0.000,     0.000,   1,1,0
    60,'PV',1,   1,   1,   -66.779,     0.000,     0.000,     0.000,     0.000,     0.000,   1,1,0
    62,'1 ',1,   1,   1,    56.229,    10.223,     0.000,     0.000,     0.000,     0.000,   1,1,0
    66,'1 ',1,   1,   1,    28.479,    13.144,     0.000,     0.000,     0.000,     0.000,   1,1,0
    67,'1 ',1,   1,   1,    20.446,     5.112,     0.000,     0.000,     0.000,     0.000,   1,1,0
    67,'PV',1,   1,   1,   -15.973,     0.000,     0.000,     0.000,     0.000,     0.000,   1,1,0
    70,'1 ',1,   1,   1,    48.195,    14.605,     0.000,     0.000,     0.000,     0.000,   1,1,0
    72,'1 ',1,   1,   1,     8.763,     0.000,     0.000,     0.000,     0.000,     0.000,   1,1,0
    73,'1 ',1,   1,   1,     4.381,     0.000,     0.000,     0.000,     0.000,     0.000,   1,1,0
    74,'1 ',1,   1,   1,    49.656,    19.716,     0.000,     0.000,     0.000,     0.000,   1,1,0
    75,'1 ',1,   1,   1,    34.321,     8.033,     0.000,     0.000,     0.000,     0.000,   1,1,0
    75,'PV',1,   1,   1,   -40.987,     0.000,     0.000,     0.000,     0.000,     0.000,   1,1,0
    76,'1 ',1,   1,   1,    49.566,    26.241,     0.000,     0.000,     0.000,     0.000,   1,1,0
    77,'1 ',1,   1,   1,    44.464,    20.410,     0.000,     0.000,     0.000,     0.000,   1,1,0
    78,'1 ',1,   1,   1,    51.753,    18.952,     0.000,     0.000,     0.000,     0.000,   1,1,0
    78,'PV',1,   1,   1,   -61.916,     0.000,     0.000,     0.000,     0.000,     0.000,   1,1,0
    79,'1 ',1,   1,   1,    28.427,    23.325,     0.000,     0.000,     0.000,     0.000,   1,1,0
    79,'PV',1,   1,   1,   -34.371,     0.000,     0.000,     0.000,     0.000,     0.000,   1,1,0
    80,'1 ',1,   1,   1,    94.758,    18.952,     0.000,     0.000,     0.000,     0.000,   1,1,0
    82,'1 ',1,   1,   1,    39.361,    19.681,     0.000,     0.000,     0.000,     0.000,   1,1,0
    82,'PV',1,   1,   1,   -30.805,     0.000,     0.000,     0.000,     0.000,     0.000,   1,1,0
    83,'1 ',1,   1,   1,    14.578,     7.289,     0.000,     0.000,     0.000,     0.000,   1,1,0
    83,'PV',1,   1,   1,   -13.287,     0.000,     0.000,     0.000,     0.000,     0.000,   1,1,0
    84,'1 ',1,   1,   1,     8.018,     5.102,     0.000,     0.000,     0.000,     0.000,   1,1,0
    84,'PV',1,   1,   1,    -8.732,     0.000,     0.000,     0.000,     0.000,     0.000,   1,1,0
    85,'1 ',1,   1,   1,    17.494,    10.933,     0.000,     0.000,     0.000,     0.000,   1,1,0
    86,'1 ',1,   1,   1,    15.308,     7.289,     0.000,     0.000,     0.000,     0.000,   1,1,0
    86,'PV',1,   1,   1,   -18.507,     0.000,     0.000,     0.000,     0.000,     0.000,   1,1,0
    88,'1 ',1,   1,   1,    34.987,     7.289,     0.000,     0.000,     0.000,     0.000,   1,1,0
    88,'PV',1,   1,   1,   -15.957,     0.000,     0.000,     0.000,     0.000,     0.000,   1,1,0
    90,'1 ',1,   1,   1,   118.814,    30.614,     0.000,     0.000,     0.000,     0.000,   1,1,0
    91,'1 ',1,   1,   1,     7.289,     0.000,     0.000,     0.000,     0.000,     0.000,   1,1,0
    92,'1 ',1,   1,   1,    47.379,     7.289,     0.000,     0.000,     0.000,     0.000,   1,1,0
    93,'1 ',1,   1,   1,     8.747,     5.102,     0.000,     0.000,     0.000,     0.000,   1,1,0
    93,'PV',1,   1,   1,   -10.576,     0.000,     0.000,     0.000,     0.000,     0.000,   1,1,0
    94,'1 ',1,   1,   1,    21.867,    11.662,     0.000,     0.000,     0.000,     0.000,   1,1,0
    94,'PV',1,   1,   1,   -26.162,     0.000,     0.000,     0.000,     0.000,     0.000,   1,1,0
    95,'1 ',1,   1,   1,    30.614,    22.596,     0.000,     0.000,     0.000,     0.000,   1,1,0
    95,'PV',1,   1,   1,   -31.102,     0.000,     0.000,     0.000,     0.000,     0.000,   1,1,0
    96,'1 ',1,   1,   1,    27.698,    10.933,     0.000,     0.000,     0.000,     0.000,   1,1,0
    96,'PV',1,   1,   1,   -33.489,     0.000,     0.000,     0.000,     0.000,     0.000,   1,1,0
    97,'1 ',1,   1,   1,    10.933,     6.560,     0.000,     0.000,     0.000,     0.000,   1,1,0
    97,'PV',1,   1,   1,    -0.000,     0.000,     0.000,     0.000,     0.000,     0.000,   1,1,0
    98,'1 ',1,   1,   1,    24.783,     5.831,     0.000,     0.000,     0.000,     0.000,   1,1,0
    98,'PV',1,   1,   1,   -22.589,     0.000,     0.000,     0.000,     0.000,     0.000,   1,1,0
    99,'1 ',1,   1,   1,    30.614,     0.000,     0.000,     0.000,     0.000,     0.000,   1,1,0
   100,'1 ',1,   1,   1,    26.970,    13.120,     0.000,     0.000,     0.000,     0.000,   1,1,0
   101,'1 ',1,   1,   1,    16.036,    10.933,     0.000,     0.000,     0.000,     0.000,   1,1,0
   101,'PV',1,   1,   1,   -16.292,     0.000,     0.000,     0.000,     0.000,     0.000,   1,1,0
   102,'1 ',1,   1,   1,     3.645,     2.187,     0.000,     0.000,     0.000,     0.000,   1,1,0
   102,'PV',1,   1,   1,    -4.281,     0.000,     0.000,     0.000,     0.000,     0.000,   1,1,0
   103,'1 ',1,   1,   1,    16.765,    11.662,     0.000,     0.000,     0.000,     0.000,   1,1,0
   104,'1 ',1,   1,   1,    27.698,    18.223,     0.000,     0.000,     0.000,     0.000,   1,1,0
   105,'1 ',1,   1,   1,    22.596,    18.952,     0.000,     0.000,     0.000,     0.000,   1,1,0
   106,'1 ',1,   1,   1,    31.343,    11.662,     0.000,     0.000,     0.000,     0.000,   1,1,0
   106,'PV',1,   1,   1,   -29.654,     0.000,     0.000,     0.000,     0.000,     0.000,   1,1,0
   107,'1 ',1,   1,   1,    36.445,     8.747,     0.000,     0.000,     0.000,     0.000,   1,1,0
   108,'1 ',1,   1,   1,     1.458,     0.729,     0.000,     0.000,     0.000,     0.000,   1,1,0
   108,'PV',1,   1,   1,    -1.744,     0.000,     0.000,     0.000,     0.000,     0.000,   1,1,0
   109,'1 ',1,   1,   1,     5.831,     2.187,     0.000,     0.000,     0.000,     0.000,   1,1,0
   109,'PV',1,   1,   1,    -6.849,     0.000,     0.000,     0.000,     0.000,     0.000,   1,1,0
   110,'1 ',1,   1,   1,    28.427,    21.867,     0.000,     0.000,     0.000,     0.000,   1,1,0
   112,'1 ',1,   1,   1,    49.566,     9.476,     0.000,     0.000,     0.000,     0.000,   1,1,0
   113,'1 ',1,   1,   1,     4.373,     0.000,     0.000,     0.000,     0.000,     0.000,   1,1,0
   114,'1 ',1,   1,   1,     5.831,     2.187,     0.000,     0.000,     0.000,     0.000,   1,1,0
   114,'PV',1,   1,   1,    -5.315,     0.000,     0.000,     0.000,     0.000,     0.000,   1,1,0
   115,'1 ',1,   1,   1,    16.036,     5.102,     0.000,     0.000,     0.000,     0.000,   1,1,0
   115,'PV',1,   1,   1,   -19.389,     0.000,     0.000,     0.000,     0.000,     0.000,   1,1,0
   116,'1 ',1,   1,   1,   134.115,     0.000,     0.000,     0.000,     0.000,     0.000,   1,1,0
   117,'1 ',1,   1,   1,    14.578,     5.831,     0.000,     0.000,     0.000,     0.000,   1,1,0
   117,'PV',1,   1,   1,   -17.123,     0.000,     0.000,     0.000,     0.000,     0.000,   1,1,0
   118,'1 ',1,   1,   1,    24.054,    10.933,     0.000,     0.000,     0.000,     0.000,   1,1,0
   118,'PV',1,   1,   1,   -28.252,     0.000,     0.000,     0.000,     0.000,     0.000,   1,1,0
0 / END OF LOAD DATA, BEGIN FIXED SHUNT DATA
0 / END OF FIXED SHUNT DATA, BEGIN GENERATOR DATA
     1,'1 ',     0.000,     0.000,    60.000,   -38.000,0.95500,     0,   100.000, 0.00000E+0, 1.00000E+0, 0.00000E+0, 0.00000E+0,1.00000,0,  100.0,    75.000,    16.000,   1,1.0000
     4,'1 ',    19.262,   -21.426,    54.000,   -36.000,0.99800,     0,   100.000, 0.00000E+0, 1.00000E+0, 0.00000E+0, 0.00000E+0,1.00000,1,  100.0,    75.000,    15.000,   1,1.0000
     6,'1 ',    19.262,    11.208,    54.000,   -36.000,0.99000,     0,   100.000, 0.00000E+0, 1.00000E+0, 0.00000E+0, 0.00000E+0,1.00000,1,  100.0,    75.000,    15.000,   1,1.0000
     8,'1 ',    19.262,    -5.759,    54.000,   -36.000,1.01500,     0,   100.000, 0.00000E+0, 1.00000E+0, 0.00000E+0, 0.00000E+0,1.00000,1,  100.0,    75.000,    15.000,   1,1.0000
    10,'1 ',   312.731,   -70.442,   388.000,  -290.000,1.05000,     0,   100.000, 0.00000E+0, 1.00000E+0, 0.00000E+0, 0.00000E+0,1.00000,1,  100.0,   629.000,   256.000,   1,1.0000
    12,'1 ',     0.000,     0.000,   120.000,  -105.000,0.99000,     0,   100.000, 0.00000E+0, 1.00000E+0, 0.00000E+0, 0.00000E+0,1.00000,0,  100.0,   185.000,    61.667,   1,1.0000
    15,'1 ',     0.000,     0.000,    54.000,   -36.000,0.97000,     0,   100.000, 0.00000E+0, 1.00000E+0, 0.00000E+0, 0.00000E+0,1.00000,0,  100.0,    75.000,    15.000,   1,1.0000
    18,'1 ',     0.000,     0.000,    54.000,   -36.000,0.97300,     0,   100.000, 0.00000E+0, 1.00000E+0, 0.00000E+0, 0.00000E+0,1.00000,0,  100.0,    75.000,    18.750,   1,1.0000
    19,'1 ',    19.262,   -36.000,    54.000,   -36.000,0.96200,     0,   100.000, 0.00000E+0, 1.00000E+0, 0.00000E+0, 0.00000E+0,1.00000,1,  100.0,    75.000,    15.000,   1,1.0000
    24,'1 ',    19.306,   -27.804,    60.000,   -38.000,0.99200,     0,   100.000, 0.00000E+0, 1.00000E+0, 0.00000E+0, 0.00000E+0,1.00000,1,  100.0,    75.000,    15.000,   1,1.0000
    25,'1 ',     0.000,     0.000,   263.000,  -164.000,1.05000,     0,   100.000, 0.00000E+0, 1.00000E+0, 0.00000E+0, 0.00000E+0,1.00000,0,  100.0,   320.000,   106.632,   1,1.0000
    26,'1 ',   182.593,    33.459,   250.000,  -215.000,1.01500,     0,   100.000, 0.00000E+0, 1.00000E+0, 0.00000E+0, 0.00000E+0,1.00000,1,  100.0,   450.000,   148.000,   1,1.0000
    27,'1 ',    19.262,   -36.000,    54.000,   -36.000,0.96800,     0,   100.000, 0.00000E+0, 1.00000E+0, 0.00000E+0, 0.00000E+0,1.00000,1,  100.0,    75.000,    15.000,   1,1.0000
    31,'1 ',    36.675,    -6.445,    90.000,   -60.000,0.96700,     0,   100.000, 0.00000E+0, 1.00000E+0, 0.00000E+0, 0.00000E+0,1.00000,1,  100.0,   107.000,    29.000,   1,1.0000
    32,'1 ',     0.000,     0.000,    60.000,   -38.000,0.96300,     0,   100.000, 0.00000E+0, 1.00000E+0, 0.00000E+0, 0.00000E+0,1.00000,0,  100.0,    75.000,    18.793,   1,1.0000